Version 4
SHEET 1 1176 680
WIRE 336 -80 -240 -80
WIRE 336 16 336 -80
WIRE 816 16 336 16
WIRE 1120 16 816 16
WIRE 224 32 144 32
WIRE 816 32 816 16
WIRE -240 48 -240 -80
WIRE -144 48 -240 48
WIRE 224 96 224 32
WIRE 224 96 144 96
WIRE -240 144 -240 48
WIRE -144 144 -240 144
WIRE 736 144 624 144
WIRE 816 144 816 112
WIRE 1120 144 1120 16
WIRE 224 160 224 96
WIRE 224 160 208 160
WIRE 816 176 816 144
WIRE 224 208 224 160
WIRE 0 272 0 208
WIRE 224 336 224 288
WIRE 816 352 816 256
WIRE 1120 352 1120 224
FLAG 1120 352 0
FLAG 816 352 0
FLAG 0 272 0
FLAG 224 336 0
FLAG 624 224 0
DATAFLAG 976 16 ""
DATAFLAG 192 32 ""
DATAFLAG 1120 288 ""
DATAFLAG 672 144 ""
SYMBOL voltage 816 160 R0
WINDOW 123 0 0 Left 0
WINDOW 39 24 124 Left 2
SYMATTR InstName V1
SYMATTR Value 4
SYMATTR SpiceLine Rser=0.3
SYMBOL voltage 816 16 R0
WINDOW 123 0 0 Left 0
WINDOW 39 24 124 Left 2
SYMATTR InstName V2
SYMATTR Value 4
SYMATTR SpiceLine Rser=0.3
SYMBOL res 1104 128 R0
SYMATTR InstName R1
SYMATTR Value 10
SYMBOL PowerProducts\\LT1762-5 0 96 R0
SYMATTR InstName U1
SYMBOL res 208 192 R0
SYMATTR InstName R2
SYMATTR Value 500
SYMBOL cap 208 144 R90
WINDOW 0 0 32 VBottom 2
WINDOW 3 32 32 VTop 2
SYMATTR InstName C1
SYMATTR Value 1µ
SYMBOL res 832 128 R90
WINDOW 0 0 56 VBottom 2
WINDOW 3 32 56 VTop 2
SYMATTR InstName R3
SYMATTR Value 100k
SYMBOL res 608 128 R0
SYMATTR InstName R4
SYMATTR Value 100k
TEXT -246 360 Left 2 !;tran 0 5 0 0.001
TEXT 688 472 Left 2 !.dc V1 4.2 2.7 -0.1
