Version 4
SHEET 1 1208 680
WIRE 1120 16 816 16
WIRE 816 32 816 16
WIRE 624 144 560 144
WIRE 672 144 624 144
WIRE 816 144 816 112
WIRE 816 144 752 144
WIRE 1120 144 1120 16
WIRE 816 176 816 144
WIRE 624 208 624 144
WIRE 624 352 624 288
WIRE 816 352 816 256
WIRE 1120 352 1120 224
FLAG 1120 352 0
FLAG 816 352 0
FLAG 560 144 Measurment
FLAG 624 352 0
SYMBOL voltage 816 160 R0
WINDOW 123 0 0 Left 0
WINDOW 39 24 124 Left 2
SYMATTR InstName V1
SYMATTR Value 4
SYMATTR SpiceLine Rser=0.3
SYMBOL voltage 816 16 R0
WINDOW 123 0 0 Left 0
WINDOW 39 24 124 Left 2
SYMATTR InstName V2
SYMATTR Value 4
SYMATTR SpiceLine Rser=0.3
SYMBOL res 1104 128 R0
SYMATTR InstName LOAD
SYMATTR Value 10
SYMBOL res 768 128 R90
WINDOW 0 0 56 VBottom 2
WINDOW 3 32 56 VTop 2
SYMATTR InstName R1
SYMATTR Value 100k
SYMBOL res 608 192 R0
SYMATTR InstName R2
SYMATTR Value 100k
TEXT 688 472 Left 2 !.dc V1 4.2 2.7 -0.1
